114

Co       0.00000000       0.00000000       0.00000000
O      -1.85935670       0.41515416      -0.79820222
O      -0.65872498      -1.87559676      -0.48241699
C      -2.49660563      -0.61971415      -1.22489802
C      -1.80981679      -1.91412499      -1.06355391
C      -2.42228437      -3.12929649      -1.51982286
C      -3.67308253      -2.99886265      -2.09057637
H      -4.19177289      -3.87937690      -2.45257361
C      -4.33860412      -1.75112971      -2.24102199
H      -5.31522067      -1.76833315      -2.71126676
C      -3.79824609      -0.54917218      -1.82969930
C      -4.50895620       0.79563403      -2.02070352
C      -4.71070538       1.49329979      -0.65514522
H      -5.29982902       0.86144408       0.01909556
H      -5.25255190       2.43527009      -0.79661849
H      -3.74866693       1.71641883      -0.19092539
C      -3.66067790       1.70800078      -2.93769940
H      -4.16786191       2.67019600      -3.07414036
H      -3.53119819       1.24801256      -3.92263526
H      -2.67587414       1.88936772      -2.50538321
C      -5.89307046       0.62004099      -2.67013365
H      -6.55694506       0.00193129      -2.05609830
H      -5.82106305       0.16896545      -3.66514428
H      -6.36214102       1.60249524      -2.78442951
C      -1.70848150      -4.47737270      -1.37125929
C      -1.43322889      -4.76712924       0.12320947
H      -0.80554866      -3.98917262       0.56020953
H      -0.92430419      -5.73274558       0.22631115
H      -2.37264916      -4.81679670       0.68417560
C      -2.55320122      -5.63627354      -1.92924383
H      -2.00236659      -6.57408491      -1.80390764
H      -2.75961362      -5.51173897      -2.99730388
H      -3.50709812      -5.73690529      -1.40072785
C      -0.37114832      -4.44617311      -2.14741707
H       0.27486653      -3.64942276      -1.77673588
H      -0.55013928      -4.28076621      -3.21470119
H       0.14738338      -5.40553117      -2.03343345
O       0.57305570       1.93511581       0.33685570
O       0.82238350       0.49441036      -1.80635483
C       0.94014800       2.56847864      -0.72598403
C       1.08852919       1.74973926      -1.94132626
C       1.49728093       2.34511950      -3.18285485
C       1.75052835       3.70228985      -3.14398275
H       2.05851973       4.21612007      -4.04744794
C       1.61744258       4.49022932      -1.96778830
H       1.84098414       5.54747187      -2.05633390
C       1.21334632       3.97615668      -0.75107633
C       1.04949109       4.83380551       0.50841125
C      -0.41457125       4.76236438       1.00244595
H      -1.09734482       5.14493671       0.23684698
H      -0.53270676       5.37638619       1.90307754
H      -0.69553343       3.73478256       1.23737773
C       1.99362661       4.32180103       1.62170697
H       1.87716687       4.93861873       2.52054036
H       3.03850702       4.38585262       1.29904606
H       1.76590932       3.28528044       1.87511159
C       1.38935450       6.31059803       0.24126567
H       0.73285610       6.74786948      -0.51815089
H       2.42761481       6.43790355      -0.08308328
H       1.25660096       6.88226925       1.16551154
C       1.60166458       1.51398647      -4.46673634
C       2.63005631       0.37490407      -4.28497054
H       3.62415276       0.77785242      -4.06496692
H       2.69949446      -0.21184707      -5.20804521
H       2.32936612      -0.28844671      -3.47339908
C       0.22002879       0.90520567      -4.80416990
H       0.29204991       0.31442531      -5.72468947
H      -0.52023617       1.69593463      -4.96325995
H      -0.12968527       0.25758138      -3.99921310
C       2.05012141       2.36972526      -5.66454132
H       3.03901567       2.81192111      -5.50300266
H       1.33981872       3.17517672      -5.87846011
H       2.11065093       1.73482564      -6.55420936
N      -0.83280014      -0.20461303       1.98411087
N       1.68105897      -0.74699224       1.19451748
C      -2.07867504       0.09582892       2.36030300
H      -2.73124122       0.45763966       1.57401608
C      -2.51816893      -0.04710719       3.67783076
H      -3.53915923       0.20914635       3.93511043
C      -1.62775619      -0.52161664       4.63700491
H      -1.93890518      -0.64528760       5.66853731
C      -0.32672760      -0.83529991       4.24903645
H       0.40024552      -1.20594885       4.96368849
C       0.03409891      -0.65996491       2.91243003
C       1.38196423      -0.95700736       2.42091932
H       2.11058436      -1.35560453       3.13404010
O       6.44032644      -1.45687302      -1.55687378
N       5.30358483      -1.25495972      -0.99795346
C       3.04679739      -1.06649407       0.76144229
H       3.58340071      -1.52193869       1.60583060
C       3.76286357       0.20929106       0.31090571
H       3.75864461       0.95607757       1.11089896
H       3.20931117       0.63016589      -0.53247772
C       5.22251452      -0.05153510      -0.10082907
C       4.40781788      -2.45728986      -0.88723730
C       3.00277563      -2.03578476      -0.42185834
H       2.46712744      -1.54648560      -1.24133562
H       2.44253601      -2.93775688      -0.15796839
C       5.74128929       1.14946826      -0.90491873
H       6.77651061       0.98342585      -1.20556124
H       5.68526540       2.05030531      -0.28641759
H       5.13451623       1.30375130      -1.80039250
C       6.13534527      -0.27528025       1.12168672
H       5.76832873      -1.07014762       1.77671770
H       6.19953307       0.64758173       1.70651546
H       7.13668382      -0.54491138       0.77853732
C       5.05104763      -3.47436699       0.07728600
H       6.07738117      -3.67212586      -0.24002337
H       4.48699853      -4.41185767       0.05181900
H       5.07056163      -3.11603543       1.11016087
C       4.31245073      -3.08149026      -2.28692168
H       5.29892952      -3.40015160      -2.62603275
H       3.91130140      -2.36057708      -3.00309697
H       3.64566058      -3.94824350      -2.25138125
