21

Fe       0.00000000       0.00000000       0.00000000
Si       1.73595000       0.09352000       2.76463000
O       0.91598000      -0.29574000       1.43224000
O       2.70333000      -1.04535000       3.23244000
O       2.38472000       1.55055000       2.53876000
O       0.64697000       0.34299000       3.99813000
Si      -1.81344000       2.69738000      -0.05641000
O      -0.70596000       1.57707000       0.17690000
O      -2.57320000       2.38693000      -1.42408000
O      -1.18805000       4.18984000      -0.05353000
O      -2.91491000       2.74848000       1.10580000
Si      -2.03576000      -2.54119000       0.08929000
O      -1.28517000      -1.13694000      -0.19755000
O      -3.05680000      -2.84103000      -1.11205000
O      -2.87218000      -2.46020000       1.45864000
O      -0.82553000      -3.60269000       0.28251000
Si       2.00484000      -0.14654000      -2.57333000
O       0.98574000       0.07786000      -1.37848000
O       2.10429000      -1.64793000      -2.80424000
O       3.39010000       0.37191000      -2.07456000
O       1.67167000       0.82505000      -3.81235000
