35

Ti    0.00000    0.00000    0.00000
Ti   -0.00018    0.00002   -5.81990
Ti   -0.00018    0.00002    5.82010
Ti   -0.00018    0.00002   -2.90990
Ti   -0.00018    0.00002    2.91010
Cl    1.97489    0.00002   -4.36490
Cl   -1.16011   -5.42996    1.45510
Cl   -4.29511    0.00002    1.45510
Cl    1.97489    0.00002    1.45510
Cl   -1.16011    5.43000    1.45510
Cl   -2.14765   -3.71950   -1.45490
Cl    4.12235   -3.71950   -1.45490
Cl   -5.28265    1.71048   -1.45490
Cl    0.98735    1.71048   -1.45490
Cl    0.98735    1.71048    4.36510
Cl   -0.98771    1.71048   -4.36490
Cl   -4.12271   -3.71950    1.45510
Cl    2.14729   -3.71950    1.45510
Cl   -0.98771    1.71048    1.45510
Cl    5.28229    1.71048    1.45510
Cl    1.15976   -5.42996   -1.45490
Cl   -1.97524    0.00002   -1.45490
Cl    4.29476    0.00002   -1.45490
Cl    1.15975    5.43000   -1.45490
Cl   -1.97524    0.00002    4.36510
Cl   -0.98771   -1.71044   -4.36490
Cl   -0.98771   -1.71044    1.45510
Cl    5.28229   -1.71044    1.45510
Cl   -4.12271    3.71954    1.45510
Cl    2.14729    3.71954    1.45510
Cl   -5.28265   -1.71044   -1.45490
Cl    0.98735   -1.71044   -1.45490
Cl   -2.14765    3.71954   -1.45490
Cl    4.12235    3.71954   -1.45490
Cl    0.98735   -1.71044    4.36510
